Version 4
SHEET 1 2472 1112
WIRE 1200 -2560 1200 -2592
WIRE 256 -2496 256 -2512
WIRE 1056 -2464 1040 -2464
WIRE 1200 -2464 1200 -2480
WIRE 1200 -2464 1120 -2464
WIRE 256 -2384 256 -2416
WIRE 256 -2384 208 -2384
WIRE 1360 -2384 1312 -2384
WIRE 1488 -2384 1424 -2384
WIRE 256 -2368 256 -2384
WIRE 1488 -2368 1488 -2384
WIRE 1136 -2352 1136 -2368
WIRE 1200 -2336 1200 -2464
WIRE 1200 -2336 1168 -2336
WIRE 1040 -2320 1040 -2464
WIRE 1104 -2320 1040 -2320
WIRE 1040 -2304 1040 -2320
WIRE 1264 -2304 1168 -2304
WIRE 1264 -2288 1264 -2304
WIRE 1312 -2288 1312 -2384
WIRE 1312 -2288 1264 -2288
WIRE 1344 -2288 1312 -2288
WIRE 1488 -2288 1424 -2288
WIRE 1488 -2272 1488 -2288
WIRE 1136 -2256 1136 -2288
WIRE 256 -2240 256 -2288
WIRE 864 -2208 832 -2208
WIRE 1040 -2208 1040 -2224
WIRE 1040 -2208 944 -2208
WIRE 1264 -2208 1264 -2288
WIRE 832 -2192 832 -2208
WIRE 1040 -2176 1040 -2208
WIRE 1584 -2064 1552 -2064
WIRE 1680 -2064 1664 -2064
WIRE 1728 -2064 1680 -2064
WIRE 1840 -2064 1808 -2064
WIRE 944 -2048 928 -2048
WIRE 1040 -2048 1040 -2096
WIRE 1040 -2048 1024 -2048
WIRE 1056 -2048 1040 -2048
WIRE 1104 -2048 1056 -2048
WIRE 1552 -2048 1552 -2064
WIRE 1104 -2032 1104 -2048
WIRE 1136 -2032 1104 -2032
WIRE 1264 -2032 1264 -2128
WIRE 1264 -2032 1200 -2032
WIRE 944 -1952 912 -1952
WIRE 1056 -1952 1056 -2048
WIRE 1056 -1952 1008 -1952
WIRE 1744 -1936 1744 -1952
WIRE 1136 -1920 1136 -1936
WIRE 1680 -1920 1680 -2064
WIRE 1712 -1920 1680 -1920
WIRE 1056 -1904 1056 -1952
WIRE 1104 -1904 1056 -1904
WIRE 1840 -1904 1840 -2064
WIRE 1840 -1904 1776 -1904
WIRE 1856 -1904 1840 -1904
WIRE 2048 -1904 1936 -1904
WIRE 2320 -1904 2144 -1904
WIRE 2384 -1904 2320 -1904
WIRE 1264 -1888 1264 -2032
WIRE 1264 -1888 1168 -1888
WIRE 1296 -1888 1264 -1888
WIRE 1376 -1888 1360 -1888
WIRE 1408 -1888 1376 -1888
WIRE 1504 -1888 1488 -1888
WIRE 1712 -1888 1504 -1888
WIRE 1008 -1872 1008 -1952
WIRE 1104 -1872 1088 -1872
WIRE 2048 -1872 2000 -1872
WIRE 2208 -1872 2144 -1872
WIRE 2320 -1872 2320 -1904
WIRE 2384 -1872 2384 -1904
WIRE 1376 -1856 1376 -1888
WIRE 1504 -1840 1504 -1888
WIRE 1744 -1840 1744 -1872
WIRE 2000 -1840 2000 -1872
WIRE 2208 -1840 2208 -1872
WIRE 1136 -1824 1136 -1856
WIRE 1008 -1792 960 -1792
WIRE 1088 -1792 1088 -1872
WIRE 1088 -1792 1008 -1792
WIRE 2320 -1792 2320 -1808
WIRE 2384 -1776 2384 -1792
WIRE 1376 -1760 1376 -1776
WIRE 1504 -1760 1504 -1776
WIRE 656 -1616 576 -1616
WIRE 816 -1616 720 -1616
WIRE 576 -1584 576 -1616
WIRE 816 -1568 816 -1616
WIRE 944 -1568 816 -1568
WIRE 1056 -1568 944 -1568
WIRE 1200 -1568 1136 -1568
WIRE 1440 -1568 1296 -1568
WIRE 1584 -1568 1520 -1568
WIRE 1600 -1568 1584 -1568
WIRE 1616 -1568 1600 -1568
WIRE 816 -1552 816 -1568
WIRE 1600 -1552 1600 -1568
WIRE 1200 -1536 1152 -1536
WIRE 1360 -1536 1296 -1536
WIRE 1152 -1504 1152 -1536
WIRE 1360 -1504 1360 -1536
WIRE 576 -1488 576 -1504
WIRE 944 -1472 944 -1568
WIRE 1600 -1456 1600 -1488
WIRE 816 -1440 816 -1472
WIRE 816 -1440 688 -1440
WIRE 944 -1392 944 -1408
WIRE 816 -1360 688 -1360
WIRE 816 -1344 816 -1360
FLAG 208 -2384 0
FLAG 256 -2512 VP
FLAG 256 -2240 VN
FLAG 944 -1392 0
FLAG 816 -1344 0
FLAG 1152 -1504 0
FLAG 1360 -1504 0
FLAG 1600 -1456 0
FLAG 1584 -1568 coil_out
FLAG 1136 -1936 VP
FLAG 1136 -1824 VN
FLAG 928 -2048 0
FLAG 1136 -2368 VP
FLAG 1136 -2256 VN
FLAG 1488 -2272 0
FLAG 1488 -2368 0
FLAG 1200 -2592 0
FLAG 832 -2192 0
FLAG 1744 -1952 VP
FLAG 1744 -1840 VN
FLAG 1504 -1760 0
FLAG 1376 -1760 0
FLAG 1552 -2048 0
FLAG 2384 -1904 VOUT1
FLAG 960 -1792 coil_out
FLAG 912 -1952 0
FLAG 2000 -1840 0
FLAG 2208 -1840 0
FLAG 2320 -1792 0
FLAG 2384 -1776 0
FLAG 576 -1488 0
SYMBOL voltage 256 -2512 R0
WINDOW 123 0 0 Left 0
WINDOW 39 0 0 Left 0
SYMATTR InstName V1
SYMATTR Value 6
SYMBOL voltage 256 -2384 R0
WINDOW 123 0 0 Left 0
WINDOW 39 0 0 Left 0
SYMATTR InstName V2
SYMATTR Value 6
SYMBOL ind 800 -1456 R0
SYMATTR InstName L5
SYMATTR Value 8n
SYMATTR SpiceLine Rser=0
SYMBOL ind 800 -1568 R0
SYMATTR InstName L6
SYMATTR Value 3.75µ
SYMBOL cap 928 -1472 R0
SYMATTR InstName C9
SYMATTR Value 8.25p
SYMBOL res 1152 -1584 R90
WINDOW 0 0 56 VBottom 2
WINDOW 3 32 56 VTop 2
SYMATTR InstName R13
SYMATTR Value 400
SYMBOL res 1536 -1584 R90
WINDOW 0 0 56 VBottom 2
WINDOW 3 32 56 VTop 2
SYMATTR InstName R14
SYMATTR Value 50
SYMBOL tline 1248 -1552 R0
SYMATTR InstName T3
SYMATTR Value Td=0.9n Z0=50
SYMBOL cap 1584 -1552 R0
SYMATTR InstName C10
SYMATTR Value 340p
SYMBOL res 928 -2032 R270
WINDOW 0 32 56 VTop 2
WINDOW 3 0 56 VBottom 2
SYMATTR InstName R15
SYMATTR Value 470
SYMBOL cap 1200 -2048 R90
WINDOW 0 0 32 VBottom 2
WINDOW 3 32 32 VTop 2
SYMATTR InstName C11
SYMATTR Value 330p
SYMBOL res 1248 -2224 R0
SYMATTR InstName R17
SYMATTR Value 47k
SYMBOL res 1440 -2304 R90
WINDOW 0 0 56 VBottom 2
WINDOW 3 32 56 VTop 2
SYMATTR InstName R18
SYMATTR Value 2k
SYMBOL cap 1424 -2400 R90
WINDOW 0 0 32 VBottom 2
WINDOW 3 32 32 VTop 2
SYMATTR InstName C13
SYMATTR Value 100p
SYMBOL res 1184 -2576 R0
SYMATTR InstName R19
SYMATTR Value 22k
SYMBOL cap 1120 -2480 R90
WINDOW 0 0 32 VBottom 2
WINDOW 3 32 32 VTop 2
SYMATTR InstName C14
SYMATTR Value 47n
SYMBOL res 1024 -2320 R0
SYMATTR InstName R22
SYMATTR Value 47k
SYMBOL res 960 -2224 R90
WINDOW 0 0 56 VBottom 2
WINDOW 3 32 56 VTop 2
SYMATTR InstName R23
SYMATTR Value 10k
SYMBOL res 1056 -2080 R180
WINDOW 0 36 76 Left 2
WINDOW 3 36 40 Left 2
SYMATTR InstName R24
SYMATTR Value 4.7k
SYMBOL cap 1360 -1904 R90
WINDOW 0 0 32 VBottom 2
WINDOW 3 32 32 VTop 2
SYMATTR InstName C15
SYMATTR Value 94n
SYMBOL res 1360 -1872 R0
SYMATTR InstName R25
SYMATTR Value 10k
SYMBOL res 1504 -1904 R90
WINDOW 0 0 56 VBottom 2
WINDOW 3 32 56 VTop 2
SYMATTR InstName R26
SYMATTR Value 220
SYMBOL cap 1488 -1840 R0
SYMATTR InstName C18
SYMATTR Value 22p
SYMBOL res 1824 -2080 R90
WINDOW 0 0 56 VBottom 2
WINDOW 3 32 56 VTop 2
SYMATTR InstName R27
SYMATTR Value 1k
SYMBOL res 1680 -2080 R90
WINDOW 0 0 56 VBottom 2
WINDOW 3 32 56 VTop 2
SYMATTR InstName R32
SYMATTR Value 1k
SYMBOL OpAmps\\UniversalOpamp2 1136 -2320 M0
WINDOW 123 135 -54 Left 2
SYMATTR Value2 Avol=316k GBW=40Meg Slew=10Meg
SYMATTR InstName U2
SYMATTR SpiceLine2 en=1E-9 enk=25 in=0.04E-12 ink=2k Rin=500Meg
SYMBOL cap 1008 -1968 R90
WINDOW 0 0 32 VBottom 2
WINDOW 3 32 32 VTop 2
SYMATTR InstName C19
SYMATTR Value 2p
SYMBOL res 992 -1888 R0
SYMATTR InstName R33
SYMATTR Value 18k
SYMBOL OpAmps\\UniversalOpamp2 1136 -1888 R0
WINDOW 123 -215 158 Left 2
WINDOW 40 -249 192 Left 2
SYMATTR Value2 Avol=316k GBW=130Meg Slew=100Meg
SYMATTR SpiceLine2 en=2E-9 enk=1k in=1.6E-12 ink=80 Rin=500Meg
SYMATTR InstName U3
SYMATTR SpiceLine ilimit=80m rail=0 Vos=0 phimargin=45
SYMBOL tline 2096 -1888 R0
SYMATTR InstName T4
SYMATTR Value Td=3n Z0=50
SYMBOL res 2368 -1888 R0
SYMATTR InstName R34
SYMATTR Value 1Meg
SYMBOL cap 2304 -1872 R0
SYMATTR InstName C20
SYMATTR Value 6p
SYMBOL res 1952 -1920 R90
WINDOW 0 0 56 VBottom 2
WINDOW 3 32 56 VTop 2
SYMATTR InstName R35
SYMATTR Value 47
SYMBOL OpAmps\\UniversalOpamp2 1744 -1904 R0
WINDOW 123 -187 158 Left 2
WINDOW 40 -249 192 Left 2
SYMATTR Value2 Avol=316k GBW=130Meg Slew=100Meg
SYMATTR SpiceLine2 en=2E-9 enk=1k in=1.6E-12 ink=80 Rin=500Meg
SYMATTR InstName U1
SYMATTR SpiceLine ilimit=80m rail=0 Vos=0 phimargin=45
SYMBOL voltage 576 -1600 R0
WINDOW 123 0 0 Left 0
WINDOW 39 0 0 Left 0
SYMATTR InstName V3
SYMATTR Value PULSE(-200 200 0 10n 10n 500n 1u)
SYMBOL cap 720 -1632 R90
WINDOW 0 0 32 VBottom 2
WINDOW 3 32 32 VTop 2
SYMATTR InstName C1
SYMATTR Value 1p
TEXT 1176 -1472 Left 2 ;10" of cable
TEXT 968 -1624 Left 2 ;coil termination resistor
TEXT 1416 -1376 Left 2 ;passive integrating capacitor
TEXT 1200 -1424 Left 2 ;~25pF
TEXT 456 -1880 Left 2 ;R24 models DM impedance of OPA\nC13 models stray capacitance
TEXT 2024 -1808 Left 2 ;3' of cable\n~100pF
TEXT 188 -1320 Left 2 !.tran 50u
