Version 4
SHEET 1 5128 1112
WIRE 3856 -3920 3856 -3952
WIRE 3712 -3824 3696 -3824
WIRE 3856 -3824 3856 -3840
WIRE 3856 -3824 3776 -3824
WIRE 4016 -3744 3968 -3744
WIRE 4144 -3744 4080 -3744
WIRE 4144 -3728 4144 -3744
WIRE 3792 -3712 3792 -3728
WIRE 3856 -3696 3856 -3824
WIRE 3856 -3696 3824 -3696
WIRE 3696 -3680 3696 -3824
WIRE 3760 -3680 3696 -3680
WIRE 3696 -3664 3696 -3680
WIRE 3920 -3664 3824 -3664
WIRE 3920 -3648 3920 -3664
WIRE 3968 -3648 3968 -3744
WIRE 3968 -3648 3920 -3648
WIRE 4000 -3648 3968 -3648
WIRE 4144 -3648 4080 -3648
WIRE 4144 -3632 4144 -3648
WIRE 3792 -3616 3792 -3648
WIRE 3520 -3568 3488 -3568
WIRE 3696 -3568 3696 -3584
WIRE 3696 -3568 3600 -3568
WIRE 3920 -3568 3920 -3648
WIRE 3488 -3552 3488 -3568
WIRE 3696 -3536 3696 -3568
WIRE 4240 -3424 4208 -3424
WIRE 4336 -3424 4320 -3424
WIRE 4384 -3424 4336 -3424
WIRE 4496 -3424 4496 -3472
WIRE 4496 -3424 4464 -3424
WIRE 3600 -3408 3584 -3408
WIRE 3696 -3408 3696 -3456
WIRE 3696 -3408 3680 -3408
WIRE 3712 -3408 3696 -3408
WIRE 3760 -3408 3712 -3408
WIRE 4208 -3408 4208 -3424
WIRE 3760 -3392 3760 -3408
WIRE 3792 -3392 3760 -3392
WIRE 3920 -3392 3920 -3488
WIRE 3920 -3392 3856 -3392
WIRE 3600 -3312 3568 -3312
WIRE 3712 -3312 3712 -3408
WIRE 3712 -3312 3664 -3312
WIRE 4400 -3296 4400 -3312
WIRE 3792 -3280 3792 -3296
WIRE 4336 -3280 4336 -3424
WIRE 4368 -3280 4336 -3280
WIRE 3712 -3264 3712 -3312
WIRE 3760 -3264 3712 -3264
WIRE 4496 -3264 4496 -3424
WIRE 4496 -3264 4432 -3264
WIRE 4512 -3264 4496 -3264
WIRE 4704 -3264 4592 -3264
WIRE 4976 -3264 4800 -3264
WIRE 5040 -3264 4976 -3264
WIRE 3920 -3248 3920 -3392
WIRE 3920 -3248 3824 -3248
WIRE 4064 -3248 3920 -3248
WIRE 4160 -3248 4144 -3248
WIRE 4368 -3248 4160 -3248
WIRE 3664 -3232 3664 -3312
WIRE 3760 -3232 3744 -3232
WIRE 4704 -3232 4656 -3232
WIRE 4864 -3232 4800 -3232
WIRE 4976 -3232 4976 -3264
WIRE 5040 -3232 5040 -3264
WIRE 4160 -3200 4160 -3248
WIRE 4400 -3200 4400 -3232
WIRE 4656 -3200 4656 -3232
WIRE 4864 -3200 4864 -3232
WIRE 3792 -3184 3792 -3216
WIRE 3664 -3152 3616 -3152
WIRE 3744 -3152 3744 -3232
WIRE 3744 -3152 3664 -3152
WIRE 4976 -3152 4976 -3168
WIRE 5040 -3136 5040 -3152
WIRE 4160 -3120 4160 -3136
WIRE 3184 -3040 2912 -3040
WIRE 3472 -3040 3248 -3040
WIRE 2912 -2992 2912 -3040
WIRE 3472 -2928 3472 -3040
WIRE 3600 -2928 3472 -2928
WIRE 3712 -2928 3600 -2928
WIRE 3856 -2928 3792 -2928
WIRE 4096 -2928 3952 -2928
WIRE 4240 -2928 4176 -2928
WIRE 4256 -2928 4240 -2928
WIRE 4272 -2928 4256 -2928
WIRE 3472 -2912 3472 -2928
WIRE 4256 -2912 4256 -2928
WIRE 3856 -2896 3808 -2896
WIRE 4016 -2896 3952 -2896
WIRE 2912 -2880 2912 -2912
WIRE 3808 -2864 3808 -2896
WIRE 4016 -2864 4016 -2896
WIRE 3600 -2832 3600 -2928
WIRE 4256 -2816 4256 -2848
WIRE 3472 -2800 3472 -2832
WIRE 3600 -2752 3600 -2768
WIRE 3472 -2704 3472 -2720
WIRE 3808 -2512 3584 -2512
WIRE 256 -2496 256 -2512
WIRE 3808 -2400 3808 -2512
WIRE 3936 -2400 3808 -2400
WIRE 4048 -2400 3936 -2400
WIRE 4192 -2400 4128 -2400
WIRE 4432 -2400 4288 -2400
WIRE 4576 -2400 4512 -2400
WIRE 4592 -2400 4576 -2400
WIRE 4608 -2400 4592 -2400
WIRE 256 -2384 256 -2416
WIRE 256 -2384 208 -2384
WIRE 3808 -2384 3808 -2400
WIRE 4592 -2384 4592 -2400
WIRE 256 -2368 256 -2384
WIRE 4192 -2368 4144 -2368
WIRE 4352 -2368 4288 -2368
WIRE 4144 -2336 4144 -2368
WIRE 4352 -2336 4352 -2368
WIRE 3936 -2304 3936 -2400
WIRE 3808 -2288 3808 -2304
WIRE 3808 -2288 3648 -2288
WIRE 4592 -2288 4592 -2320
WIRE 3648 -2272 3648 -2288
WIRE 3808 -2272 3808 -2288
WIRE 256 -2240 256 -2288
WIRE 3936 -2224 3936 -2240
WIRE 3648 -2176 3648 -2192
WIRE 3808 -2176 3808 -2192
WIRE 3504 -1600 3504 -1632
FLAG 208 -2384 0
FLAG 256 -2512 VP
FLAG 256 -2240 VN
FLAG 3600 -2752 0
FLAG 3472 -2704 0
FLAG 3808 -2864 0
FLAG 4016 -2864 0
FLAG 4256 -2816 0
FLAG 4240 -2928 coil_out_2
FLAG 3792 -3296 VP
FLAG 3792 -3184 VN
FLAG 3584 -3408 0
FLAG 3792 -3728 VP
FLAG 3792 -3616 VN
FLAG 4144 -3632 0
FLAG 4144 -3728 0
FLAG 3856 -3952 0
FLAG 3488 -3552 0
FLAG 4400 -3312 VP
FLAG 4400 -3200 VN
FLAG 4160 -3120 0
FLAG 4208 -3408 0
FLAG 5040 -3264 VOUT2
FLAG 3568 -3312 0
FLAG 4656 -3200 0
FLAG 4864 -3200 0
FLAG 4976 -3152 0
FLAG 5040 -3136 0
FLAG 3616 -3152 coil_out_2
FLAG 2912 -2880 0
FLAG 3936 -2224 0
FLAG 3808 -2176 0
FLAG 4144 -2336 0
FLAG 4352 -2336 0
FLAG 4592 -2288 0
FLAG 4576 -2400 coil_out_3
FLAG 3648 -2176 0
SYMBOL voltage 256 -2512 R0
WINDOW 123 0 0 Left 0
WINDOW 39 0 0 Left 0
SYMATTR InstName V1
SYMATTR Value 6
SYMBOL voltage 256 -2384 R0
WINDOW 123 0 0 Left 0
WINDOW 39 0 0 Left 0
SYMATTR InstName V2
SYMATTR Value 6
SYMBOL ind 3456 -2816 R0
SYMATTR InstName L3
SYMATTR Value 8n
SYMATTR SpiceLine Rser=0
SYMBOL ind 3456 -2928 R0
SYMATTR InstName L4
SYMATTR Value {L0}
SYMBOL cap 3584 -2832 R0
SYMATTR InstName C12
SYMATTR Value {C0}
SYMBOL res 3808 -2944 R90
WINDOW 0 0 56 VBottom 2
WINDOW 3 32 56 VTop 2
SYMATTR InstName R28
SYMATTR Value 450
SYMBOL res 4192 -2944 R90
WINDOW 0 0 56 VBottom 2
WINDOW 3 32 56 VTop 2
SYMATTR InstName R29
SYMATTR Value 50
SYMBOL cap 4240 -2912 R0
SYMATTR InstName C16
SYMATTR Value 225p
SYMBOL res 3584 -3392 R270
WINDOW 0 32 56 VTop 2
WINDOW 3 0 56 VBottom 2
SYMATTR InstName R30
SYMATTR Value 360
SYMBOL cap 3856 -3408 R90
WINDOW 0 0 32 VBottom 2
WINDOW 3 32 32 VTop 2
SYMATTR InstName C17
SYMATTR Value 330p
SYMBOL res 3904 -3584 R0
SYMATTR InstName R31
SYMATTR Value 5k
SYMBOL res 4096 -3664 R90
WINDOW 0 0 56 VBottom 2
WINDOW 3 32 56 VTop 2
SYMATTR InstName R36
SYMATTR Value 1k
SYMBOL cap 4080 -3760 R90
WINDOW 0 0 32 VBottom 2
WINDOW 3 32 32 VTop 2
SYMATTR InstName C21
SYMATTR Value 1p
SYMBOL res 3840 -3936 R0
SYMATTR InstName R37
SYMATTR Value 10k
SYMBOL cap 3776 -3840 R90
WINDOW 0 0 32 VBottom 2
WINDOW 3 32 32 VTop 2
SYMATTR InstName C22
SYMATTR Value 47n
SYMBOL res 3680 -3680 R0
SYMATTR InstName R38
SYMATTR Value 22k
SYMBOL res 3616 -3584 R90
WINDOW 0 0 56 VBottom 2
WINDOW 3 32 56 VTop 2
SYMATTR InstName R39
SYMATTR Value 8.2k
SYMBOL res 3712 -3440 R180
WINDOW 0 36 76 Left 2
WINDOW 3 36 40 Left 2
SYMATTR InstName R40
SYMATTR Value 22k
SYMBOL res 4160 -3264 R90
WINDOW 0 0 56 VBottom 2
WINDOW 3 32 56 VTop 2
SYMATTR InstName R41
SYMATTR Value 470
SYMBOL cap 4144 -3200 R0
SYMATTR InstName C23
SYMATTR Value 2p
SYMBOL res 4480 -3440 R90
WINDOW 0 0 56 VBottom 2
WINDOW 3 32 56 VTop 2
SYMATTR InstName R42
SYMATTR Value 1k
SYMBOL res 4336 -3440 R90
WINDOW 0 0 56 VBottom 2
WINDOW 3 32 56 VTop 2
SYMATTR InstName R43
SYMATTR Value 1k
SYMBOL OpAmps\\UniversalOpamp2 3792 -3680 M0
WINDOW 123 135 -54 Left 2
SYMATTR Value2 Avol=316k GBW=40Meg Slew=10Meg
SYMATTR InstName U7
SYMATTR SpiceLine2 en=1E-9 enk=25 in=0.04E-12 ink=2k Rin=500Meg
SYMBOL cap 3664 -3328 R90
WINDOW 0 0 32 VBottom 2
WINDOW 3 32 32 VTop 2
SYMATTR InstName C24
SYMATTR Value 2p
SYMBOL res 3648 -3248 R0
SYMATTR InstName R44
SYMATTR Value 8k
SYMBOL OpAmps\\UniversalOpamp2 3792 -3248 R0
WINDOW 123 -215 158 Left 2
WINDOW 40 -249 192 Left 2
SYMATTR Value2 Avol=316k GBW=130Meg Slew=100Meg
SYMATTR SpiceLine2 en=2E-9 enk=1k in=1.6E-12 ink=80 Rin=500Meg
SYMATTR InstName U8
SYMATTR SpiceLine ilimit=80m rail=0 Vos=0 phimargin=45
SYMBOL tline 4752 -3248 R0
SYMATTR InstName T6
SYMATTR Value Td=3n Z0=50
SYMBOL res 5024 -3248 R0
SYMATTR InstName R45
SYMATTR Value 1Meg
SYMBOL cap 4960 -3232 R0
SYMATTR InstName C25
SYMATTR Value 6p
SYMBOL res 4608 -3280 R90
WINDOW 0 0 56 VBottom 2
WINDOW 3 32 56 VTop 2
SYMATTR InstName R46
SYMATTR Value 47
SYMBOL OpAmps\\UniversalOpamp2 4400 -3264 R0
WINDOW 123 -187 158 Left 2
WINDOW 40 -249 192 Left 2
SYMATTR Value2 Avol=316k GBW=130Meg Slew=100Meg
SYMATTR SpiceLine2 en=2E-9 enk=1k in=1.6E-12 ink=80 Rin=500Meg
SYMATTR InstName U9
SYMATTR SpiceLine ilimit=80m rail=0 Vos=0 phimargin=45
SYMBOL tline 3904 -2912 R0
SYMATTR InstName T1
SYMATTR Value Td=2n Z0=50
SYMBOL voltage 2912 -3008 R0
WINDOW 123 0 0 Left 0
WINDOW 39 0 0 Left 0
SYMATTR InstName V3
SYMATTR Value PULSE(-25 25 0 10n 10n 5u 10u)
SYMBOL cap 3248 -3056 R90
WINDOW 0 0 32 VBottom 2
WINDOW 3 32 32 VTop 2
SYMATTR InstName C1
SYMATTR Value 1p
SYMBOL ind 3792 -2288 R0
SYMATTR InstName L1
SYMATTR Value 8n
SYMATTR SpiceLine Rser=0
SYMBOL ind 3792 -2400 R0
SYMATTR InstName L2
SYMATTR Value {L0}
SYMBOL cap 3920 -2304 R0
SYMATTR InstName C2
SYMATTR Value {C0}
SYMBOL res 4144 -2416 R90
WINDOW 0 0 56 VBottom 2
WINDOW 3 32 56 VTop 2
SYMATTR InstName R1
SYMATTR Value 450
SYMBOL res 4528 -2416 R90
WINDOW 0 0 56 VBottom 2
WINDOW 3 32 56 VTop 2
SYMATTR InstName R2
SYMATTR Value 50
SYMBOL cap 4576 -2384 R0
SYMATTR InstName C3
SYMATTR Value 225p
SYMBOL tline 4240 -2384 R0
SYMATTR InstName T2
SYMATTR Value Td=2n Z0=50
SYMBOL current 3648 -2272 R0
WINDOW 3 -128 162 Left 2
WINDOW 123 0 0 Left 0
WINDOW 39 0 0 Left 0
SYMATTR InstName I1
SYMATTR Value PULSE(-0.1 0.1 0 10n 10n 5u 10u)
TEXT 456 -1880 Left 2 ;R24 models DM impedance of OPA\nC13 models stray capacitance
TEXT 192 -1320 Left 2 !.tran 25u
TEXT 88 -1464 Left 2 !.param K 0.6
TEXT 3832 -2832 Left 2 ;10" of cable
TEXT 3624 -2984 Left 2 ;coil termination resistor
TEXT 4072 -2736 Left 2 ;passive integrating capacitor
TEXT 3856 -2784 Left 2 ;~25pF
TEXT 3112 -3240 Left 2 ;R24 models DM impedance of OPA\nC13 models stray capacitance
TEXT 4680 -3168 Left 2 ;3' of cable\n~100pF
TEXT 2824 -2784 Left 2 ;passive integrating capacitor
TEXT 2664 -1768 Left 2 !.param L1_K2=0.004
TEXT 2816 -2320 Left 2 !.param L0 4.7u\n.param C0 7.2p
TEXT 4168 -2304 Left 2 ;10" of cable
TEXT 3960 -2456 Left 2 ;coil termination resistor
TEXT 4192 -2256 Left 2 ;~25pF
TEXT 3160 -2256 Left 2 ;passive integrating capacitor
