Version 4
SHEET 1 2632 708
WIRE 48 -1120 -224 -1120
WIRE -224 -1072 -224 -1120
WIRE 48 -1072 48 -1120
WIRE 176 -1072 48 -1072
WIRE 368 -1072 176 -1072
WIRE 464 -1072 448 -1072
WIRE 48 -1056 48 -1072
WIRE 464 -1024 464 -1072
WIRE -224 -976 -224 -1008
WIRE 176 -976 176 -1072
WIRE 1984 -960 1872 -960
WIRE 48 -944 48 -976
WIRE 464 -928 464 -960
WIRE 1872 -912 1872 -960
WIRE 1984 -912 1984 -960
WIRE 2144 -912 2144 -960
WIRE 2144 -912 1984 -912
WIRE 2272 -912 2144 -912
WIRE 2336 -912 2272 -912
WIRE 2560 -912 2416 -912
WIRE 2144 -896 2144 -912
WIRE -224 -880 -224 -896
WIRE 2560 -864 2560 -912
WIRE 48 -848 48 -864
WIRE 176 -848 176 -912
WIRE 176 -848 48 -848
WIRE 1872 -816 1872 -848
WIRE 2272 -816 2272 -912
WIRE 1984 -800 1984 -912
WIRE 2144 -784 2144 -816
WIRE 2560 -768 2560 -800
WIRE 1872 -720 1872 -736
WIRE 1984 -704 1984 -720
WIRE 2272 -688 2272 -752
WIRE 2144 -656 2144 -704
WIRE 2144 -560 2144 -576
WIRE 896 -512 848 -512
WIRE 992 -512 960 -512
WIRE 1120 -512 1072 -512
WIRE 1232 -512 1200 -512
WIRE 1232 -480 1232 -512
WIRE 848 -464 848 -512
WIRE 1232 -384 1232 -416
WIRE 848 -352 848 -384
WIRE 512 -128 480 -128
WIRE -368 -112 -416 -112
WIRE -256 -112 -288 -112
WIRE -960 -80 -1040 -80
WIRE -768 -80 -864 -80
WIRE -1040 -32 -1040 -80
WIRE -768 -32 -768 -80
WIRE -672 -32 -768 -32
WIRE -592 -32 -672 -32
WIRE -416 -32 -416 -112
WIRE -416 -32 -512 -32
WIRE -384 -32 -416 -32
WIRE -256 -32 -256 -112
WIRE -256 -32 -304 -32
WIRE -80 -32 -256 -32
WIRE 16 -32 -80 -32
WIRE 512 -32 512 -128
WIRE 512 -32 480 -32
WIRE 576 -32 512 -32
WIRE -768 -16 -768 -32
WIRE 1408 -16 1296 -16
WIRE -960 16 -960 -80
WIRE -864 16 -864 0
WIRE -864 16 -960 16
WIRE -864 32 -864 16
WIRE -512 32 -512 -32
WIRE 1296 32 1296 -16
WIRE 1408 32 1408 -16
WIRE 1568 32 1568 -16
WIRE 1568 32 1408 32
WIRE 1696 32 1568 32
WIRE 1888 32 1696 32
WIRE 1984 32 1968 32
WIRE -256 48 -256 -32
WIRE 1568 48 1568 32
WIRE -1040 64 -1040 32
WIRE -672 64 -672 -32
WIRE -80 64 -80 -32
WIRE 16 80 16 48
WIRE 576 80 576 32
WIRE 576 80 544 80
WIRE 1984 80 1984 32
WIRE -384 96 -384 64
WIRE 576 128 576 80
WIRE 1296 128 1296 96
WIRE 1696 128 1696 32
WIRE -256 144 -256 128
WIRE 1408 144 1408 32
WIRE -1040 160 -1040 144
WIRE -864 160 -864 112
WIRE -256 160 -256 144
WIRE 1568 160 1568 128
WIRE 1984 176 1984 144
WIRE 512 192 480 192
WIRE 576 192 512 192
WIRE 1296 224 1296 208
WIRE -864 256 -864 240
WIRE -672 256 -672 128
WIRE -672 256 -864 256
WIRE -592 256 -592 112
WIRE -592 256 -672 256
WIRE -416 256 -512 256
WIRE -384 256 -416 256
WIRE -256 256 -304 256
WIRE -160 256 -160 144
WIRE -160 256 -256 256
WIRE 16 256 16 144
WIRE 16 256 -160 256
WIRE 1696 256 1696 192
WIRE 1568 288 1568 240
WIRE 512 304 512 192
WIRE 512 304 480 304
WIRE -416 352 -416 256
WIRE -368 352 -416 352
WIRE -256 352 -256 256
WIRE -256 352 -288 352
WIRE 1568 384 1568 368
FLAG -1040 160 0
FLAG -224 -880 0
FLAG 176 -848 0
FLAG 464 -928 0
FLAG 1296 224 0
FLAG 1696 256 0
FLAG 1984 176 0
FLAG 1568 384 0
FLAG 1232 -384 0
FLAG 848 -352 0
FLAG 544 80 0
FLAG 1872 -720 0
FLAG 2272 -688 0
FLAG 2560 -768 0
FLAG 2144 -560 0
FLAG 1984 -704 0
FLAG -256 144 0
FLAG -368 64 0
FLAG 16 256 0
SYMBOL cap -1056 -32 R0
SYMATTR InstName C2
SYMATTR Value 1p
SYMBOL voltage -1040 48 R0
WINDOW 123 0 0 Left 0
WINDOW 39 0 0 Left 0
SYMATTR InstName V1
SYMATTR Value AC 1
SYMBOL ind 32 -960 R0
SYMATTR InstName L5
SYMATTR Value 8n
SYMATTR SpiceLine Rser=0
SYMBOL ind 32 -1072 R0
SYMATTR InstName L6
SYMATTR Value 3.75µ
SYMBOL cap 160 -976 R0
SYMATTR InstName C5
SYMATTR Value 8.25p
SYMBOL cap -240 -1072 R0
SYMATTR InstName C6
SYMATTR Value 1p
SYMBOL voltage -224 -992 R0
WINDOW 123 0 0 Left 0
WINDOW 39 0 0 Left 0
SYMATTR InstName V2
SYMATTR Value AC 1
SYMBOL res 464 -1088 R90
WINDOW 0 0 56 VBottom 2
WINDOW 3 32 56 VTop 2
SYMATTR InstName R5
SYMATTR Value 640
SYMBOL cap 448 -1024 R0
SYMATTR InstName C7
SYMATTR Value 200p
SYMBOL ind 1552 272 R0
SYMATTR InstName L7
SYMATTR Value 8n
SYMATTR SpiceLine Rser=0
SYMBOL ind 1552 32 R0
SYMATTR InstName L8
SYMATTR Value {3.75u/2}
SYMBOL cap 1680 128 R0
SYMATTR InstName C8
SYMATTR Value 8.25p
SYMBOL cap 1280 32 R0
SYMATTR InstName C9
SYMATTR Value 1p
SYMBOL voltage 1296 112 R0
WINDOW 123 0 0 Left 0
WINDOW 39 0 0 Left 0
SYMATTR InstName V3
SYMATTR Value AC 1
SYMBOL res 1984 16 R90
WINDOW 0 0 56 VBottom 2
WINDOW 3 32 56 VTop 2
SYMATTR InstName R6
SYMATTR Value 640
SYMBOL cap 1968 80 R0
SYMATTR InstName C10
SYMATTR Value 200p
SYMBOL ind 1552 144 R0
SYMATTR InstName L9
SYMATTR Value {3.75u/2}
SYMBOL ind -880 144 R0
SYMATTR InstName L1
SYMATTR Value 8n
SYMATTR SpiceLine Rser=0
SYMBOL ind -880 -96 R0
SYMATTR InstName L2
SYMATTR Value {3.75u/2}
SYMBOL ind -880 16 R0
SYMATTR InstName L10
SYMATTR Value {3.75u/2}
SYMBOL res 1088 -528 R90
WINDOW 0 0 56 VBottom 2
WINDOW 3 32 56 VTop 2
SYMATTR InstName R7
SYMATTR Value 640
SYMBOL ind 1104 -496 R270
WINDOW 0 32 56 VTop 2
WINDOW 3 5 56 VBottom 2
SYMATTR InstName L11
SYMATTR Value 100µ
SYMBOL cap 1216 -480 R0
SYMATTR InstName C11
SYMATTR Value 400p
SYMBOL voltage 848 -480 R0
WINDOW 123 0 0 Left 0
WINDOW 39 0 0 Left 0
SYMATTR InstName V4
SYMATTR Value AC 1
SYMBOL cap 960 -528 R90
WINDOW 0 0 32 VBottom 2
WINDOW 3 32 32 VTop 2
SYMATTR InstName C12
SYMATTR Value 1p
SYMBOL cap 560 -32 R0
SYMATTR InstName C17
SYMATTR Value 200p
SYMBOL cap 560 128 R0
SYMATTR InstName C18
SYMATTR Value 200p
SYMBOL ind 2128 -672 R0
SYMATTR InstName L14
SYMATTR Value 8n
SYMATTR SpiceLine Rser=0
SYMBOL ind 2128 -912 R0
SYMATTR InstName L15
SYMATTR Value {3.75u/2}
SYMBOL cap 2256 -816 R0
SYMATTR InstName C19
SYMATTR Value 8.25p
SYMBOL cap 1856 -912 R0
SYMATTR InstName C20
SYMATTR Value 1p
SYMBOL voltage 1872 -832 R0
WINDOW 123 0 0 Left 0
WINDOW 39 0 0 Left 0
SYMATTR InstName V5
SYMATTR Value AC 1
SYMBOL cap 2544 -864 R0
SYMATTR InstName C21
SYMATTR Value 200p
SYMBOL ind 2128 -800 R0
SYMATTR InstName L16
SYMATTR Value {3.75u/2}
SYMBOL res 2432 -928 R90
WINDOW 0 0 56 VBottom 2
WINDOW 3 32 56 VTop 2
SYMATTR InstName R12
SYMATTR Value 2k
SYMBOL res 2000 -704 R180
WINDOW 0 36 76 Left 2
WINDOW 3 36 40 Left 2
SYMATTR InstName R13
SYMATTR Value 640
SYMBOL ind2 -288 240 R90
WINDOW 0 4 56 VBottom 2
WINDOW 3 32 56 VTop 2
SYMATTR InstName L3
SYMATTR Value 1m
SYMATTR Type ind
SYMBOL ind2 -288 -48 R90
WINDOW 0 4 56 VBottom 2
WINDOW 3 32 56 VTop 2
SYMATTR InstName L4
SYMATTR Value 1m
SYMATTR Type ind
SYMBOL cap -688 64 R0
SYMATTR InstName C4
SYMATTR Value 8.25p
SYMBOL res -272 -128 R90
WINDOW 0 0 56 VBottom 2
WINDOW 3 32 56 VTop 2
SYMATTR InstName R8
SYMATTR Value 4k
SYMBOL res -272 336 R90
WINDOW 0 0 56 VBottom 2
WINDOW 3 32 56 VTop 2
SYMATTR InstName R9
SYMATTR Value 4k
SYMBOL res -608 -16 R270
WINDOW 0 32 56 VTop 2
WINDOW 3 0 56 VBottom 2
SYMATTR InstName R1
SYMATTR Value 1m
SYMBOL res -608 272 R270
WINDOW 0 32 56 VTop 2
WINDOW 3 0 56 VBottom 2
SYMATTR InstName R2
SYMATTR Value 1m
SYMBOL res 0 -48 R0
SYMATTR InstName R3
SYMATTR Value 640
SYMBOL cap 0 80 R0
SYMATTR InstName C1
SYMATTR Value 200p
TEXT -448 568 Left 2 !.ac oct 100 1k 40Meg
TEXT -272 -288 Left 2 !K1 L3 L4 1
