Version 4
SHEET 1 3160 680
WIRE 1712 -1616 1664 -1616
WIRE 2128 -1616 1792 -1616
WIRE 2464 -1616 2128 -1616
WIRE 2608 -1616 2544 -1616
WIRE 2848 -1616 2704 -1616
WIRE 3008 -1616 2928 -1616
WIRE 3024 -1616 3008 -1616
WIRE 1664 -1600 1664 -1616
WIRE 3008 -1600 3008 -1616
WIRE 2608 -1584 2560 -1584
WIRE 2768 -1584 2704 -1584
WIRE -320 -1552 -368 -1552
WIRE -176 -1552 -240 -1552
WIRE 96 -1552 -96 -1552
WIRE 432 -1552 96 -1552
WIRE 576 -1552 512 -1552
WIRE 816 -1552 672 -1552
WIRE 976 -1552 896 -1552
WIRE 992 -1552 976 -1552
WIRE 2560 -1552 2560 -1584
WIRE 2768 -1552 2768 -1584
WIRE -368 -1536 -368 -1552
WIRE 976 -1536 976 -1552
WIRE 576 -1520 528 -1520
WIRE 736 -1520 672 -1520
WIRE 2128 -1520 2128 -1616
WIRE 3008 -1504 3008 -1536
WIRE 528 -1488 528 -1520
WIRE 736 -1488 736 -1520
WIRE 1664 -1488 1664 -1520
WIRE 1664 -1488 1536 -1488
WIRE 96 -1456 96 -1552
WIRE 976 -1440 976 -1472
WIRE 2128 -1440 2128 -1456
WIRE -368 -1424 -368 -1456
WIRE -368 -1424 -496 -1424
WIRE 1664 -1408 1536 -1408
WIRE 1664 -1392 1664 -1408
WIRE 96 -1376 96 -1392
WIRE -368 -1344 -496 -1344
WIRE -368 -1328 -368 -1344
WIRE 1408 -816 1360 -816
WIRE 1504 -816 1472 -816
WIRE 1600 -816 1584 -816
WIRE 1360 -784 1360 -816
WIRE 1504 -688 1472 -688
WIRE 1600 -688 1600 -816
WIRE 1600 -688 1584 -688
WIRE 1648 -688 1600 -688
WIRE 1760 -688 1728 -688
WIRE 1472 -672 1472 -688
WIRE -144 -640 -144 -656
WIRE 1664 -560 1664 -576
WIRE 1600 -544 1600 -688
WIRE 1632 -544 1600 -544
WIRE -144 -528 -144 -560
WIRE -144 -528 -192 -528
WIRE 1760 -528 1760 -688
WIRE 1760 -528 1696 -528
WIRE 1776 -528 1760 -528
WIRE 1968 -528 1856 -528
WIRE 2240 -528 2064 -528
WIRE 2304 -528 2240 -528
WIRE -144 -512 -144 -528
WIRE 1200 -512 1152 -512
WIRE 1328 -512 1200 -512
WIRE 1424 -512 1408 -512
WIRE 1632 -512 1424 -512
WIRE 672 -496 672 -528
WIRE 1968 -496 1920 -496
WIRE 2128 -496 2064 -496
WIRE 2240 -496 2240 -528
WIRE 2304 -496 2304 -528
WIRE 1424 -464 1424 -512
WIRE 1664 -464 1664 -496
WIRE 1920 -464 1920 -496
WIRE 2128 -464 2128 -496
WIRE 2240 -416 2240 -432
WIRE 672 -400 672 -416
WIRE 2304 -400 2304 -416
WIRE -144 -384 -144 -432
WIRE 1424 -384 1424 -400
WIRE 576 -176 560 -176
WIRE -144 -160 -144 -192
WIRE 1232 -128 1184 -128
WIRE 1328 -128 1296 -128
WIRE 1424 -128 1408 -128
WIRE 576 -112 576 -176
WIRE 1184 -96 1184 -128
WIRE -144 -64 -144 -80
WIRE 576 -16 576 -32
WIRE 1328 0 1296 0
WIRE 1424 0 1424 -128
WIRE 1424 0 1408 0
WIRE 1472 0 1424 0
WIRE 1584 0 1552 0
WIRE 1296 16 1296 0
WIRE 1488 128 1488 112
WIRE 1424 144 1424 0
WIRE 1456 144 1424 144
WIRE 1584 160 1584 0
WIRE 1584 160 1520 160
WIRE 1600 160 1584 160
WIRE 1792 160 1680 160
WIRE 2064 160 1888 160
WIRE 2128 160 2064 160
WIRE 1024 176 976 176
WIRE 1152 176 1024 176
WIRE 1248 176 1232 176
WIRE 1456 176 1248 176
WIRE 1792 192 1744 192
WIRE 1952 192 1888 192
WIRE 2064 192 2064 160
WIRE 2128 192 2128 160
WIRE 1248 224 1248 176
WIRE 1488 224 1488 192
WIRE 1744 224 1744 192
WIRE 1952 224 1952 192
WIRE 2064 272 2064 256
WIRE 2128 288 2128 272
WIRE 1248 304 1248 288
FLAG -144 -64 0
FLAG 576 -16 0
FLAG 576 -176 ref
FLAG 1488 112 VP
FLAG 1488 224 VN
FLAG 1248 304 0
FLAG 1296 16 0
FLAG 2128 160 VTEST
FLAG 1744 224 0
FLAG 1952 224 0
FLAG 2064 272 0
FLAG 2128 288 0
FLAG 1184 -96 0
FLAG 1024 176 ref
FLAG -192 -528 0
FLAG -144 -656 VP
FLAG -144 -384 VN
FLAG 672 -400 0
FLAG 672 -528 ref_out
FLAG 1664 -576 VP
FLAG 1664 -464 VN
FLAG 1424 -384 0
FLAG 1472 -672 0
FLAG 2304 -528 VTEST2
FLAG 1920 -464 0
FLAG 2128 -464 0
FLAG 2240 -416 0
FLAG 2304 -400 0
FLAG 1360 -784 0
FLAG 1200 -512 ref
FLAG 96 -1376 0
FLAG -368 -1328 0
FLAG 528 -1488 0
FLAG 736 -1488 0
FLAG 976 -1440 0
FLAG 2128 -1440 0
FLAG 1664 -1392 0
FLAG 2560 -1552 0
FLAG 2768 -1552 0
FLAG 3008 -1504 0
SYMBOL voltage -144 -176 R0
WINDOW 123 0 0 Left 0
WINDOW 39 0 0 Left 0
SYMATTR InstName V1
SYMATTR Value AC 1
SYMBOL res 560 -128 R0
SYMATTR InstName R1
SYMATTR Value 1
SYMBOL cap 1232 224 R0
SYMATTR InstName C1
SYMATTR Value 2p
SYMBOL res 1568 -16 R90
WINDOW 0 0 56 VBottom 2
WINDOW 3 32 56 VTop 2
SYMATTR InstName R2
SYMATTR Value 700
SYMBOL res 1424 -16 R90
WINDOW 0 0 56 VBottom 2
WINDOW 3 32 56 VTop 2
SYMATTR InstName R3
SYMATTR Value 470
SYMBOL tline 1840 176 R0
SYMATTR InstName T1
SYMATTR Value Td=3n Z0=50
SYMBOL res 2112 176 R0
SYMATTR InstName R4
SYMATTR Value 1Meg
SYMBOL cap 2048 192 R0
SYMATTR InstName C2
SYMATTR Value 6p
SYMBOL res 1696 144 R90
WINDOW 0 0 56 VBottom 2
WINDOW 3 32 56 VTop 2
SYMATTR InstName R5
SYMATTR Value 47
SYMBOL OpAmps\\UniversalOpamp2 1488 160 R0
WINDOW 123 -187 158 Left 2
WINDOW 40 -249 192 Left 2
SYMATTR Value2 Avol=316k GBW=130Meg Slew=100Meg
SYMATTR SpiceLine2 en=2E-9 enk=1k in=1.6E-12 ink=80 Rin=500Meg
SYMATTR InstName U1
SYMATTR SpiceLine ilimit=80m rail=0 Vos=0 phimargin=45
SYMBOL res 1248 160 R90
WINDOW 0 0 56 VBottom 2
WINDOW 3 32 56 VTop 2
SYMATTR InstName R6
SYMATTR Value 220
SYMBOL res 1424 -144 R90
WINDOW 0 0 56 VBottom 2
WINDOW 3 32 56 VTop 2
SYMATTR InstName R7
SYMATTR Value 1.1k
SYMBOL cap 1296 -144 R90
WINDOW 0 0 32 VBottom 2
WINDOW 3 32 32 VTop 2
SYMATTR InstName C3
SYMATTR Value 47p
SYMBOL voltage -144 -656 R0
WINDOW 123 0 0 Left 0
WINDOW 39 0 0 Left 0
SYMATTR InstName V2
SYMATTR Value 6
SYMBOL voltage -144 -528 R0
WINDOW 123 0 0 Left 0
WINDOW 39 0 0 Left 0
SYMATTR InstName V3
SYMATTR Value 6
SYMBOL bv 672 -512 R0
SYMATTR InstName B1
SYMATTR Value V=2*V(ref)
SYMBOL cap 1408 -464 R0
SYMATTR InstName C4
SYMATTR Value 2p
SYMBOL res 1744 -704 R90
WINDOW 0 0 56 VBottom 2
WINDOW 3 32 56 VTop 2
SYMATTR InstName R8
SYMATTR Value 2k
SYMBOL res 1600 -704 R90
WINDOW 0 0 56 VBottom 2
WINDOW 3 32 56 VTop 2
SYMATTR InstName R9
SYMATTR Value 470
SYMBOL tline 2016 -512 R0
SYMATTR InstName T2
SYMATTR Value Td=3n Z0=50
SYMBOL res 2288 -512 R0
SYMATTR InstName R10
SYMATTR Value 1Meg
SYMBOL cap 2224 -496 R0
SYMATTR InstName C5
SYMATTR Value 6p
SYMBOL res 1872 -544 R90
WINDOW 0 0 56 VBottom 2
WINDOW 3 32 56 VTop 2
SYMATTR InstName R11
SYMATTR Value 47
SYMBOL OpAmps\\UniversalOpamp2 1664 -528 R0
WINDOW 123 -187 158 Left 2
WINDOW 40 -249 192 Left 2
SYMATTR Value2 Avol=316k GBW=130Meg Slew=100Meg
SYMATTR SpiceLine2 en=2E-9 enk=1k in=1.6E-12 ink=80 Rin=500Meg
SYMATTR InstName U2
SYMATTR SpiceLine ilimit=80m rail=0 Vos=0 phimargin=45
SYMBOL res 1424 -528 R90
WINDOW 0 0 56 VBottom 2
WINDOW 3 32 56 VTop 2
SYMATTR InstName R12
SYMATTR Value 220
SYMBOL res 1600 -832 R90
WINDOW 0 0 56 VBottom 2
WINDOW 3 32 56 VTop 2
SYMATTR InstName R13
SYMATTR Value 1.1k
SYMBOL cap 1472 -832 R90
WINDOW 0 0 32 VBottom 2
WINDOW 3 32 32 VTop 2
SYMATTR InstName C6
SYMATTR Value 47p
SYMBOL res -80 -1568 R90
WINDOW 0 0 56 VBottom 2
WINDOW 3 -110 55 VTop 2
SYMATTR InstName R14
SYMATTR Value R=1 Laplace=+1/{L1_K2}/(-S*S/4/3.14^2)^0.25
SYMBOL res -224 -1568 R90
WINDOW 0 0 56 VBottom 2
WINDOW 3 32 56 VTop 2
SYMATTR InstName R15
SYMATTR Value 2
SYMBOL ind -384 -1440 R0
SYMATTR InstName L1
SYMATTR Value 8n
SYMATTR SpiceLine Rser=0
SYMBOL ind -384 -1552 R0
SYMATTR InstName L2
SYMATTR Value {L0}
SYMBOL cap 80 -1456 R0
SYMATTR InstName C7
SYMATTR Value {C0}
SYMBOL res 528 -1568 R90
WINDOW 0 0 56 VBottom 2
WINDOW 3 32 56 VTop 2
SYMATTR InstName R16
SYMATTR Value 550
SYMBOL res 912 -1568 R90
WINDOW 0 0 56 VBottom 2
WINDOW 3 32 56 VTop 2
SYMATTR InstName R17
SYMATTR Value 50
SYMBOL tline 624 -1536 R0
SYMATTR InstName T3
SYMATTR Value Td=2n Z0=50
SYMBOL cap 960 -1536 R0
SYMATTR InstName C8
SYMATTR Value 10n
SYMBOL current -496 -1344 R180
WINDOW 0 24 80 Left 2
WINDOW 3 24 0 Left 2
WINDOW 123 0 0 Left 0
WINDOW 39 0 0 Left 0
SYMATTR InstName I1
SYMATTR Value AC 1
SYMBOL res 1808 -1632 R90
WINDOW 0 0 56 VBottom 2
WINDOW 3 32 56 VTop 2
SYMATTR InstName R19
SYMATTR Value 2
SYMBOL ind 1648 -1504 R0
SYMATTR InstName L3
SYMATTR Value 8n
SYMATTR SpiceLine Rser=0
SYMBOL ind 1648 -1616 R0
SYMATTR InstName L4
SYMATTR Value {L0}
SYMBOL cap 2112 -1520 R0
SYMATTR InstName C9
SYMATTR Value {C0}
SYMBOL res 2560 -1632 R90
WINDOW 0 0 56 VBottom 2
WINDOW 3 32 56 VTop 2
SYMATTR InstName R20
SYMATTR Value 550
SYMBOL res 2944 -1632 R90
WINDOW 0 0 56 VBottom 2
WINDOW 3 32 56 VTop 2
SYMATTR InstName R21
SYMATTR Value 50
SYMBOL tline 2656 -1600 R0
SYMATTR InstName T4
SYMATTR Value Td=2n Z0=50
SYMBOL cap 2992 -1600 R0
SYMATTR InstName C10
SYMATTR Value 10n
SYMBOL current 1536 -1408 R180
WINDOW 0 24 80 Left 2
WINDOW 3 24 0 Left 2
WINDOW 123 0 0 Left 0
WINDOW 39 0 0 Left 0
SYMATTR InstName I2
SYMATTR Value AC 1
TEXT -376 24 Left 2 ;V10 1 0 DC 0 AC 1\n* MAG requires  (freq, magnitude, degree)\nEfreq1 ref 0  FREQ {V(1,0)}=\n+(1e6, 0.893, -26.7)\n+(2e6, 0.705, -45.2)  \n+(5e6, 0.37, -68.3)\n+(10e6, 0.195, -78.7)
TEXT -176 264 Left 2 !.ac dec 1000 100k 50Meg
TEXT -232 312 Left 2 !.include vsource.txt
TEXT 1768 256 Left 2 ;3' of cable\n~100pF
TEXT 1944 -432 Left 2 ;3' of cable\n~100pF
TEXT 552 -1456 Left 2 ;10" of cable
TEXT 120 -1608 Left 2 ;coil termination resistor
TEXT 792 -1360 Left 2 ;passive integrating capacitor
TEXT 576 -1408 Left 2 ;~25pF
TEXT -384 -1848 Left 2 !.param L1_K2=0.05
TEXT -296 -1992 Left 2 !.param L0 4.7u\n.param C0 7.2p
TEXT 2584 -1520 Left 2 ;10" of cable
TEXT 2152 -1672 Left 2 ;coil termination resistor
TEXT 2824 -1424 Left 2 ;passive integrating capacitor
TEXT 2608 -1472 Left 2 ;~25pF
